@(#)Deltares, Delft3D-QUICKPLOT, Version 2.60.67807 (64bit), 23-Oct-2020 22:40:42
